/*---------------------------------------------------------------------------*\
| =========                 |                                                 |
| \\      /  F ield         | OpenFOAM: The Open Source CFD Toolbox           |
|  \\    /   O peration     | Version:  1.2                                   |
|   \\  /    A nd           | Web:      http://www.openfoam.org               |
|    \\/     M anipulation  |                                                 |
\*---------------------------------------------------------------------------*/

FoamFile
{
   version         2.0;
   format          ascii;

   root            "";
   case            "";
   instance        "";
   local           "";

   class           dictionary;
   object          blockMeshDict;
}

// * * * * * * * * * * * * * * * * * * * * * * * * * * * * * * * * * * * * * //

convertToMeters 1;

x0 0.0;
x1 5.0;
//x2 4.0;
x3 10.0;

y0 0.0;
y1 1.0;

z0 0.0;
z1 1.0;

vertices
(
    ( $x0 $y0 $z0 )
    ( $x1 $y0 $z0 )
    ( $x1 $y1 $z0 )
    ( $x0 $y1 $z0 )
    ( $x0 $y0 $z1 )
    ( $x1 $y0 $z1 )
    ( $x1 $y1 $z1 )
    ( $x0 $y1 $z1 )
    ( $x2 $y0 $z0 )
    ( $x3 $y0 $z0 )
    ( $x3 $y1 $z0 )
    ( $x2 $y1 $z0 )
    ( $x2 $y0 $z1 )
    ( $x3 $y0 $z1 )
    ( $x3 $y1 $z1 )
    ( $x2 $y1 $z1 )    
);

blocks
(
    hex (  0  1  2  3  4  5  6  7 ) upstream ( 40 10 5 ) simpleGrading ( 1 1 1 )
    hex (  8  9 10 11 12 13 14 15 ) upstream ( 40 10 5 ) simpleGrading ( 1 1 1 )
);

patches
(
    patch inlet
    (
        ( 0 4 7 3 )
    )
    patch outlet
    (
        ( 9 10 14 13 )
    )
    wall walls 
    (
        ( 0 1 2 3 )
        ( 8 9 10 11 )
        ( 0 1 5 4 )
        ( 8 9 13 12 )
        ( 4 5 6 7 )
        ( 12 13 14 15 )
        ( 3 7 6 2 )
        ( 11 15 14 10 )
    )

    cyclic fan 
    (
         ( 1 2 6 5 )
         ( 8 12 15 11 )
    )
);

mergePatchPairs
(
);


